/*--------------------------------*- C++ -*----------------------------------*\
| =========                 |                                                 |
| \\      /  F ield         | foam-extend: Open Source CFD                    |
|  \\    /   O peration     | Version:     3.2                                |
|   \\  /    A nd           | Web:         http://www.foam-extend.org         |
|    \\/     M anipulation  | For copyright notice see file Copyright         |
\*---------------------------------------------------------------------------*/
FoamFile
{
    version     2.0;
    format      ascii;
    class       polyBoundaryMesh;
    location    "constant/polyMesh";
    object      boundary;
}
// * * * * * * * * * * * * * * * * * * * * * * * * * * * * * * * * * * * * * //

4
(
    WALL_TOP
    {
        type            wall;
        nFaces          16;
        startFace       10224;
    }
    WALL_BOTTOM
    {
        type            wall;
        nFaces          16;
        startFace       10240;
    }
    INOUT_CYC
    {
        type            cyclic;
        nFaces          2048;
        startFace       10256;
        featureCos      0.9;
        transform       translational;
        separationVector (-0.04 0 0);
    }
    SIDE_CYC
    {
        type            cyclic;
        nFaces          2048;
        startFace       12304;
        featureCos      0.9;
        transform       translational;
        separationVector (0 0 0.04);
    }
)

// ************************************************************************* //
