/*--------------------------------*- C++ -*----------------------------------*\
| =========                 |                                                 |
| \\      /  F ield         | OpenFOAM Extend Project: Open source CFD        |
|  \\    /   O peration     | Version:  1.6-ext                               |
|   \\  /    A nd           | Web:      www.extend-project.de                 |
|    \\/     M anipulation  |                                                 |
\*---------------------------------------------------------------------------*/
FoamFile
{
    version     2.0;
    format      ascii;
    class       volScalarField;
    location    "0";
    object      k;
}
// * * * * * * * * * * * * * * * * * * * * * * * * * * * * * * * * * * * * * //
dimensions      [0 2 -2 0 0 0 0];
internalField   uniform 0.5; 
boundaryField
{
    WALL_TOP
    {
        type            kLowReRoughWallTP;
        ks             <ksValueExpression>;
		kType		 	linear;
        value           uniform 0.2;
    }
    WALL_BOTTOM
    {
        type            kLowReRoughWallTP;
        ks              <ksValueExpression>;
		kType			linear;
        value           uniform 0.2;
    }
    SIDE_CYC
    {
        type            cyclic;
		value           uniform 0.5;
    }
    INOUT_CYC
    {
        type            cyclic;
        value           uniform 0.5; 
    }
}
// ************************************************************************* //
