/*--------------------------------*- C++ -*----------------------------------*\
| =========                 |                                                 |
| \\      /  F ield         | foam-extend: Open Source CFD                    |
|  \\    /   O peration     | Version:     3.1                                |
|   \\  /    A nd           | Web:         http://www.extend-project.de       |
|    \\/     M anipulation  |                                                 |
\*---------------------------------------------------------------------------*/
FoamFile
{
    version     2.0;
    format      ascii;
    class       volVectorField;
    location    "0";
    object      tppsi;
}
// * * * * * * * * * * * * * * * * * * * * * * * * * * * * * * * * * * * * * //
dimensions      [0 0 0 0 0 0 0];
internalField   uniform (0.0 0.0 0.0);
boundaryField
{
    WALL_TOP
    {
        type            tppsiLowReRoughWallTP;
        ks              <ksValueExpression>; 
        cr 				1.0;
        pswType         nut;
        value           uniform (0.0 0.0 0.0);
    }
    WALL_BOTTOM
    {
        type            tppsiLowReRoughWallTP;
        ks              <ksValueExpression>;
        cr              1.0;
       	pswType	       	nut;
        value           uniform (0.0 0.0 0.0);
    }
    SIDE_CYC
    {
        type            cyclic;
        value           uniform (0.0 0.0 0.0);
    }
    INOUT_CYC
    {
        type            cyclic;
        value           uniform (0.0 0.0 0.0);
    }
}
// ************************************************************************* //
