/*--------------------------------*- C++ -*----------------------------------*\
| =========                 |                                                 |
| \\      /  F ield         | OpenFOAM Extend Project: Open Source CFD        |
|  \\    /   O peration     | Version:  1.6-ext                               |
|   \\  /    A nd           | Web:      www.extend-project.de                 |
|    \\/     M anipulation  |                                                 |
\*---------------------------------------------------------------------------*/
FoamFile
{
    version     2.0;
    format      ascii;
    class       dictionary;
    object      RASProperties;
}
// * * * * * * * * * * * * * * * * * * * * * * * * * * * * * * * * * * * * * //

RASModel            turbulentPotential;

turbulence          on;

printCoeffs         on;

turbulentPotentialCoeffs{

   solveK              true;
   solveEps            true;
   solvePsi            true;
   solvePhi            true;
   solveNut            true;
   timeScaleEps        epsilon;
   prodType            psi;
   eqnSigmaK           false;
   eqnSigmaEps         false;
   eqnSigmaPhi         false;
   eqnSigmaPsi         false;
   eqncEp2             false;
   eqncMu 		       false;
   eqnEpsHat           mod;
   nutType             phi;
   sigmaKInit          1.25;
   sigmaEpsInit        0.833;
   sigmaEpsVisc        1.0;
   sigmaPhiInit        0.5;
   sigmaPsiInit        1.0;
   psiNuFrac           1.0;
   phiNuFrac           1.0;
   phiV1               0.0;
   cT                  0.0;
   cD1                 2.0;
   cD2                 0.67;
   cPphi               2.0;
   cP1                 1.7;
   cP2                 0.6;
   cP3                 0.12;
   cP4                 0.85714;
   cEp1                1.45;
   cEp2con	           1.83;
   cMu                 0.21;
   cPr                 1.0;
   cEhr                0.0019;
   cVv1                0.0;
   cTv1                0.0;
   debugWrite          false;
   tslimiter           true;
   psiProd             psi;
   gT1                 0.0;
   gT2                 0.0;
   gT3                 0.0;
   cEhm                10.0;
   cNF                 10.0;
   cPw                 10.0;
}

// ************************************************************************* //

